56192143
  SciTegic04032018093D

 53 54  0  0  0  0            999 V2000
    0.0406   -1.0437   -0.2358 C   0  0
   -0.0464   -0.2235   -1.3317 N   0  0
    1.4527   -1.4705    0.2049 C   0  0
   -1.3679    0.2969   -1.7170 C   0  0
   -0.9434   -1.4320    0.3822 O   0  0
    1.1104    0.1926   -2.1508 C   0  0
    1.1008   -2.5072    3.9075 N   0  0
    2.7583   -2.8298    1.6509 O   0  0
    1.4316   -2.3789    1.4412 C   0  0  3  0  0  0
   -1.6406    1.6214   -1.0567 C   0  0
   -2.0933    4.0821    0.2029 C   0  0
   -2.0397    1.6716    0.2736 C   0  0
   -1.4745    2.8134   -1.7540 C   0  0
   -1.7015    4.0338   -1.1302 C   0  0
   -2.2610    2.8909    0.8989 C   0  0
    0.9563   -1.6579    2.7208 C   0  0
    1.1690   -0.5203   -3.5138 C   0  0
    2.4767   -2.9912    4.0336 C   0  0
    2.9286   -3.7015    2.7517 C   0  0
   -2.3135    5.4022    0.8887 C   0  0
    2.3715   -0.0326   -4.3318 C   0  0
    1.1932   -2.0485   -3.3719 C   0  0
   -1.0434    5.8751    1.6021 C   0  0
    1.9316   -1.9967   -0.6185 H   0  0
    2.0418   -0.5813    0.4260 H   0  0
   -2.1586   -0.4091   -1.4545 H   0  0
   -1.4247    0.4106   -2.7990 H   0  0
    2.0553    0.0581   -1.6280 H   0  0
    1.0404    1.2683   -2.3161 H   0  0
    0.4631   -3.2910    3.8427 H   0  0
    0.7918   -3.2415    1.2441 H   0  0
   -2.1712    0.7536    0.8302 H   0  0
   -1.1631    2.7959   -2.7881 H   0  0
   -1.5700    4.9519   -1.6864 H   0  0
   -2.5604    2.9085    1.9368 H   0  0
    1.5388   -0.7503    2.8866 H   0  0
   -0.0908   -1.3623    2.6524 H   0  0
    0.2707   -0.2588   -4.0735 H   0  0
    2.5262   -3.6596    4.8937 H   0  0
    3.1202   -2.1356    4.2432 H   0  0
    3.9778   -3.9888    2.8248 H   0  0
    2.3539   -4.6145    2.5906 H   0  0
   -3.1326    5.3084    1.6033 H   0  0
   -2.6284    6.1451    0.1548 H   0  0
    3.3115   -0.2711   -3.8334 H   0  0
    2.3363    1.0474   -4.4776 H   0  0
    2.3910   -0.4973   -5.3182 H   0  0
    0.3227   -2.4181   -2.8293 H   0  0
    2.0876   -2.3864   -2.8489 H   0  0
    1.1874   -2.5277   -4.3512 H   0  0
   -0.2210    6.0008    0.8975 H   0  0
   -0.7281    5.1594    2.3618 H   0  0
   -1.2086    6.8337    2.0946 H   0  0
  2  1  1  0
  3  1  1  0
  4  2  1  0
  5  1  2  0
  6  2  1  0
  7 16  1  0
  8  9  1  0
  9  3  1  0
 10  4  1  0
 11 14  2  0
 12 10  1  0
 13 10  2  0
 14 13  1  0
 15 12  2  0
 16  9  1  0
 17  6  1  0
 18  7  1  0
 19  8  1  0
 20 11  1  0
 21 17  1  0
 22 17  1  0
 23 20  1  0
 18 19  1  0
 15 11  1  0
  3 24  1  0
  3 25  1  0
  4 26  1  0
  4 27  1  0
  6 28  1  0
  6 29  1  0
  7 30  1  0
  9 31  1  0
 12 32  1  0
 13 33  1  0
 14 34  1  0
 15 35  1  0
 16 36  1  0
 16 37  1  0
 17 38  1  0
 18 39  1  0
 18 40  1  0
 19 41  1  0
 19 42  1  0
 20 43  1  0
 20 44  1  0
 21 45  1  0
 21 46  1  0
 21 47  1  0
 22 48  1  0
 22 49  1  0
 22 50  1  0
 23 51  1  0
 23 52  1  0
 23 53  1  0
M  END
> <Name>
56192143

> <ID>
56192143

> <MolNumber>
45579

> <AbsoluteEnergy[CHARMm]>
4.32635

> <Conformation Method>
BEST

> <Total Number of Conformations>
136

> <RB>
7

> <Hacc>
3

> <Supplier>
ChemBridge

> <clogP>
2.33

> <stereochemistry>
racemic

> <tPSA>
41.57

> <Forcefield>
CHARMm

> <Hdon>
1

> <LogSw>
-3.51

> <1x8b-01-s>
0

> <1x8b-02-s>
0

> <1x8b-03-s>
0

> <1x8b-04-s>
0

> <1x8b-05-s>
0

> <1x8b-06-s>
0

> <1x8b-07-s>
0

> <1x8b-08-s>
0

> <1x8b-09-s>
0

> <1x8b-10-s>
0

> <4aw5-01-s>
0

> <3v01-01-s>
0.642456

> <3v01-02-s>
0

> <3v01-03-s>
0

> <3v01-04-s>
0

> <3v01-05-s>
0.521466

> <3v01-06-s>
0.524509

> <3v01-07-s>
0

> <3v01-08-s>
0.906464

> <3v01-09-s>
0

> <3v01-10-s>
0

> <DistanceToCenter(1)>
0

> <Cluster(1)>
2

> <DistanceToCenter(2)>
0

> <Cluster(2)>
2

> <Uncertainity_EPHB4>
2.06

> <Uncertainity_MEK1>
5.6

> <WEE1_POC>
80

> <EPHB4_POC>
89

> <MEK1_POC>
100

$$$$
SEW05801
  SciTegic04032018093D

 24 27  0  0  0  0            999 V2000
    2.6955   -0.4323    0.0350 C   0  0
    3.1241   -1.8652    0.2934 C   0  0
    0.1268   -0.7121   -0.2271 C   0  0
    1.4468    0.1187   -0.1583 C   0  0
    4.4488   -1.9400    0.3828 N   0  0
   -1.3595   -0.3782   -0.1881 C   0  0
    4.0065    0.2477    0.0187 C   0  0
   -1.9984   -1.4635   -0.3242 N   0  0
    4.9591   -0.6517    0.2057 C   0  0
   -1.1717   -2.4799   -0.4542 N   0  0
    0.1248   -2.0232   -0.4127 C   0  0
   -2.2029    0.8291   -0.0553 C   0  0
    2.4061   -2.8552    0.4467 O   0  0
   -1.7947    2.2371    0.0687 C   0  0
   -3.5019    0.5216   -0.0789 C   0  0
   -4.2094    2.7858    0.1168 C   0  0
   -4.5304    1.5072    0.0104 C   0  0
   -2.7591    3.1756    0.1498 C   0  0
    4.3250    1.6481   -0.1932 C   0  0
   -5.2390    3.7516    0.1937 O   0  0
    6.3660   -0.3112    0.2170 C   0  0
   -6.5488    3.1234    0.1340 C   0  0
    5.6242    1.9914   -0.1915 C   0  0
    6.6938    0.9662    0.0226 C   0  0
  2  1  1  0
  3  4  1  0
  4  1  2  0
  5  2  1  0
  6  3  1  0
  7  1  1  0
  8  6  2  0
  9  7  2  0
 10 11  1  0
 11  3  2  0
 12  6  1  0
 13  2  2  0
 14 12  1  0
 15 12  2  0
 16 17  2  0
 17 15  1  0
 18 14  2  0
 19  7  1  0
 20 16  1  0
 21  9  1  0
 22 20  1  0
 23 19  2  0
 24 23  1  0
  9  5  1  0
 21 24  2  0
  8 10  1  0
 18 16  1  0
M  END
> <Name>
SEW05801

> <code>
SEW05801

> <MOLFORMULA>
C19 H15 N3 O2

> <MOLWEIGHT>
317.346

> <product_name>
3-{[3-(4-methoxyphenyl)-1H-pyrazol-4-yl]methylene}-1,3-dihydro-2H-indol-2-one

> <c_log_p>
2.22

> <h_bond_donors>
2

> <rotatable_bonds>
4

> <h_bond_acceptors>
5

> <HIA>
OK

> <BBB>
BBB-

> <ACD_Code>
MFCD01313378

> <Flexibility>
1

> <PSA>
67.01

> <Parent_MW>
317.35

> <Clean Energy>
63.7111

> <Cluster(2)>
5

> <DistanceToCenter>
0.744681

> <Cluster>
5

> <Uncertainity_EPHB4>
2.06

> <Uncertainity_MEK1>
5.6

> <MEK1_Kd>
1500

> <WEE1_POC>
67

> <EPHB4_POC>
87

> <MEK1_POC>
5.9

$$$$
CD08164
  SciTegic04032018093D

 21 23  0  0  0  0            999 V2000
   -0.5207   -1.1741    0.0724 S   0  0
    2.0882   -0.5575    0.0321 C   0  0
    0.7818   -0.0819    0.0473 N   0  0
    2.4339   -1.7927    0.0337 N   0  0
    3.2585    0.2519    0.0124 C   0  0
    3.8202   -1.8633    0.0155 N   0  0
   -2.0455   -0.2849    0.0095 C   0  0
   -3.3186   -1.0078    0.0062 C   0  0
    4.2828   -0.5475    0.0028 C   0  0
   -4.4655   -0.3320   -0.0412 C   0  0
   -0.4790   -2.0093    1.3377 O   0  0
   -0.4388   -2.1171   -1.1126 O   0  0
   -4.4520    1.1323   -0.0899 C   0  0
   -2.0330    1.0461   -0.0347 C   0  0
   -3.2931    1.7886   -0.0868 C   0  0
   -5.9699   -1.1812   -0.0452 Cl  0  0
   -5.9400    2.0079   -0.1513 Cl  0  0
    3.3833    1.6901    0.0036 C   0  0
    5.6434   -0.0589   -0.0176 C   0  0
    4.6248    2.1890   -0.0152 C   0  0
    5.8131    1.2692   -0.0263 C   0  0
  2  3  1  0
  3  1  1  0
  4  2  2  0
  5  2  1  0
  6  4  1  0
  7  1  1  0
  8  7  1  0
  9  5  2  0
 10  8  2  0
 11  1  2  0
 12  1  2  0
 13 15  2  0
 14  7  2  0
 15 14  1  0
 16 10  1  0
 17 13  1  0
 18  5  1  0
 19  9  1  0
 20 18  2  0
 21 20  1  0
 10 13  1  0
  9  6  1  0
 19 21  2  0
M  END
> <Name>
CD08164

> <Clean Energy>
26.6275

> <code>
CD08164

> <MOLFORMULA>
C13 H9 Cl2 N3 O2 S

> <MOLWEIGHT>
342.205

> <product_name>
N1-(1H-indazol-3-yl)-3,4-dichlorobenzene-1-sulfonamide

> <c_log_p>
3.76

> <h_bond_donors>
2

> <rotatable_bonds>
3

> <h_bond_acceptors>
5

> <HIA>
OK

> <BBB>
BBB-

> <ACD_Code>
MFCD00120519

> <Flexibility>
1

> <PSA>
74.85

> <Parent_MW>
342.2

> <ADMET_Solubility>
-5.649

> <ADMET_Solubility_Level>
2

> <ADMET_Unknown_AlogP98>
0

> <ADMET_BBB>
-0.137

> <ADMET_BBB_Level>
2

> <ADMET_EXT_CYP2D6>
-9.45675

> <ADMET_EXT_CYP2D6#Prediction>
false

> <ADMET_EXT_CYP2D6_Applicability>
OPS PC16 out of range. Value: -3.6846. Training min, max, SD, explained variance: -3.0359, 3.3819, 1.125, 0.0165.
Unknown FCFP_2 feature: 1747267175: [*][c]1:[*]:[*]:[nH]:n:1
Unknown FCFP_2 feature: 262592487: [*][c]1:[*]:[*]:n:[nH]:1

> <ADMET_EXT_CYP2D6_Applicability#MD>
13.5284

> <ADMET_EXT_CYP2D6_Applicability#MDpvalue>
8.5124e-05

> <ADMET_EXT_Hepatotoxic>
7.24297

> <ADMET_EXT_Hepatotoxic#Prediction>
true

> <ADMET_EXT_Hepatotoxic_Applicability>
All properties and OPS components are within expected ranges.

> <ADMET_EXT_Hepatotoxic_Applicability#MD>
18.7479

> <ADMET_EXT_Hepatotoxic_Applicability#MDpvalue>
2.38668e-22

> <ADMET_Absorption_Level>
0

> <ADMET_EXT_PPB>
8.35938

> <ADMET_EXT_PPB#Prediction>
true

> <ADMET_EXT_PPB_Applicability>
OPS PC22 out of range. Value: 4.4034. Training min, max, SD, explained variance: -4.213, 4.3127, 1.256, 0.0130.

> <ADMET_EXT_PPB_Applicability#MD>
12.5449

> <ADMET_EXT_PPB_Applicability#MDpvalue>
0.0235389

> <ADMET_AlogP98>
3.829

> <ADMET_PSA_2D>
73.727

> <DistanceToCenter(1)>
0.714286

> <Cluster(1)>
6

> <DistanceToCenter(2)>
0.714286

> <Cluster(2)>
3

> <Uncertainity_EPHB4>
2.06

> <Uncertainity_MEK1>
5.6

> <WEE1_POC>
92

> <EPHB4_POC>
93

> <MEK1_POC>
100

$$$$
HTS08601
  SciTegic04032018093D

 23 24  0  0  0  0            999 V2000
   -3.5000   -2.3268   -0.0345 C   0  0  3  0  0  0
    2.8413   -0.4920    0.0174 C   0  0
    1.5934    0.1956    0.0145 N   0  0
   -2.1475   -1.6877   -0.0204 C   0  0
    5.3555   -0.3238    0.0109 C   0  0
    4.0513    0.2644    0.0174 N   0  0
   -0.7401    0.2381   -0.0040 N   0  0
    0.3253   -0.4647    0.0042 C   0  0
    5.5249   -1.6462    0.0081 C   0  0
   -2.0206   -0.3614   -0.0165 C   0  0
    6.5366    0.5493    0.0060 C   0  0
    2.8735   -1.7262    0.0123 O   0  0
   -0.9660   -2.5167   -0.0109 C   0  0
   -3.8893   -2.5229    1.2736 F   0  0
   -4.4190   -1.4951   -0.6371 F   0  0
   -3.4316   -3.5624   -0.6462 F   0  0
    7.7597    0.0108   -0.0011 C   0  0
    6.8573   -2.2318    0.0006 C   0  0
    0.2233   -1.9329    0.0009 C   0  0
    7.9280   -1.4432   -0.0039 C   0  0
    7.0408   -3.9497   -0.0028 Cl  0  0
    6.3645    1.9444    0.0085 O   0  0
    7.6280    2.6295    0.0025 C   0  0
  2  3  1  0
  3  8  1  0
  4  1  1  0
  5  6  1  0
  6  2  1  0
  7 10  1  0
  8 19  1  0
  9  5  2  0
 10  4  2  0
 11  5  1  0
 12  2  2  0
 13  4  1  0
 14  1  1  0
 15  1  1  0
 16  1  1  0
 17 11  2  0
 18  9  1  0
 19 13  2  0
 20 17  1  0
 21 18  1  0
 22 11  1  0
 23 22  1  0
  8  7  2  0
 18 20  2  0
M  END
> <Name>
HTS08601

> <code>
HTS08601

> <MOLFORMULA>
C14 H11 Cl F3 N3 O2

> <MOLWEIGHT>
345.707

> <product_name>
N-[4-(trifluoromethoxy)phenyl]-N'-[5-(trifluoromethyl)-2-pyridinyl]urea

> <c_log_p>
3.9

> <h_bond_donors>
2

> <rotatable_bonds>
3

> <h_bond_acceptors>
5

> <HIA>
OK

> <BBB>
BBB+/-

> <ACD_Code>
MFCD04123871

> <Flexibility>
2

> <PSA>
63.25

> <Parent_MW>
345.71

> <Clean Energy>
13.9979

> <Uncertainity_EPHB4>
2.06

> <Uncertainity_MEK1>
5.6

> <WEE1_POC>
88

> <EPHB4_POC>
95

> <MEK1_POC>
93

$$$$
RF04426
  SciTegic04032018093D

 25 26  0  0  0  0            999 V2000
   -0.6786   -0.3871    0.0447 C   0  0
    0.6637    0.3088    0.0486 C   0  0
   -1.8666    0.2568    0.0318 C   0  0
   -2.0587    1.7647    0.0121 C   0  0  3  0  0  0
    1.8025   -0.4117    0.0064 N   0  0
   -0.7015   -1.8628    0.0376 C   0  0
   -1.8042   -2.5100    0.0294 N   0  0
   -3.0495   -1.8482    0.0318 C   0  0
    3.1227    0.1824    0.0020 C   0  0
    4.1994   -0.6050    0.0025 C   0  0
   -3.0758   -0.5219    0.0423 C   0  0
    5.5497   -0.0130   -0.0025 C   0  0
   -4.2637   -2.6200    0.0430 N   0  0
    0.7211    1.5373    0.1051 O   0  0
   -1.3473    2.3250   -1.0350 F   0  0
   -3.3984    2.0590   -0.1229 F   0  0
   -1.5751    2.3033    1.1855 F   0  0
    3.3214    1.6479   -0.0065 C   0  0
    5.7047    1.3108   -0.0090 C   0  0
    4.0164   -2.3219    0.0103 Cl  0  0
    4.5395    2.1768   -0.0117 C   0  0
    7.2861    2.0062   -0.0133 Cl  0  0
   -5.6311   -2.0704    0.2212 C   0  0  3  0  0  0
   -6.0767   -1.0500   -0.8684 C   0  0
   -6.6367   -3.2368    0.2128 C   0  0
  2  1  1  0
  3  1  2  0
  4  3  1  0
  5  2  1  0
  6  1  1  0
  7  6  2  0
  8  7  1  0
  9  5  1  0
 10  9  2  0
 11  3  1  0
 12 10  1  0
 13  8  1  0
 14  2  2  0
 15  4  1  0
 16  4  1  0
 17  4  1  0
 18  9  1  0
 19 21  1  0
 20 10  1  0
 21 18  2  0
 22 19  1  0
 23 13  1  0
 24 23  1  0
 25 23  1  0
 11  8  2  0
 12 19  2  0
M  END
> <Name>
RF04426

> <code>
RF04426

> <MOLFORMULA>
C16 H14 Cl2 F3 N3 O

> <MOLWEIGHT>
392.207

> <product_name>
N-(2,4-dichlorophenyl)-6-(isopropylamino)-4-(trifluoromethyl)nicotinamide

> <c_log_p>
4.75

> <h_bond_donors>
2

> <rotatable_bonds>
4

> <h_bond_acceptors>
4

> <HIA>
OK

> <BBB>
BBB+/-

> <ACD_Code>
MFCD02180575

> <Flexibility>
2

> <PSA>
54.02

> <Parent_MW>
392.21

> <Clean Energy>
21.7069

> <ADMET_Solubility>
-6.49

> <ADMET_Solubility_Level>
1

> <ADMET_Unknown_AlogP98>
0

> <ADMET_BBB>
0.475

> <ADMET_BBB_Level>
1

> <ADMET_EXT_CYP2D6>
-3.656

> <ADMET_EXT_CYP2D6#Prediction>
false

> <ADMET_EXT_CYP2D6_Applicability>
All properties and OPS components are within expected ranges.

> <ADMET_EXT_CYP2D6_Applicability#MD>
16.1382

> <ADMET_EXT_CYP2D6_Applicability#MDpvalue>
1.02114e-07

> <ADMET_EXT_Hepatotoxic>
-1.93232

> <ADMET_EXT_Hepatotoxic#Prediction>
true

> <ADMET_EXT_Hepatotoxic_Applicability>
All properties and OPS components are within expected ranges.

> <ADMET_EXT_Hepatotoxic_Applicability#MD>
12.7648

> <ADMET_EXT_Hepatotoxic_Applicability#MDpvalue>
5.58651e-06

> <ADMET_Absorption_Level>
0

> <ADMET_EXT_PPB>
6.46173

> <ADMET_EXT_PPB#Prediction>
true

> <ADMET_EXT_PPB_Applicability>
All properties and OPS components are within expected ranges.

> <ADMET_EXT_PPB_Applicability#MD>
13.7289

> <ADMET_EXT_PPB_Applicability#MDpvalue>
0.000342959

> <ADMET_AlogP98>
4.809

> <ADMET_PSA_2D>
54.182

> <DistanceToCenter(1)>
0.122449

> <Cluster(1)>
7

> <DistanceToCenter(2)>
0.122449

> <Cluster(2)>
3

> <Uncertainity_EPHB4>
2.06

> <Uncertainity_MEK1>
5.6

> <WEE1_POC>
94

> <EPHB4_POC>
93

> <MEK1_POC>
100

$$$$
JFD00460
  SciTegic04032018093D

 18 20  0  0  0  0            999 V2000
   -0.9767   -0.1889   -0.0006 C   0  0
   -1.0547   -1.6942   -0.0026 C   0  0
   -2.3418   -2.0937   -0.0017 N   0  0
   -2.3454    0.2230    0.0014 C   0  0
   -3.1453   -0.9375    0.0009 C   0  0
    0.0214    0.6358    0.0003 N   0  0
   -0.1093   -2.4854   -0.0043 O   0  0
    1.4527    0.3803   -0.0011 C   0  0
    4.2426   -0.0023   -0.0016 C   0  0
    1.9810   -0.8420   -0.0124 C   0  0
    2.3673    1.5355    0.0107 C   0  0
   -2.8540    1.4475    0.0038 C   0  0
    3.4239   -1.0478   -0.0128 C   0  0
    3.6891    1.3529    0.0105 C   0  0
    5.6196   -0.2004   -0.0016 O   0  0
   -4.4708   -0.8834    0.0027 C   0  0
   -4.3333    1.5599    0.0058 C   0  0
   -5.0969    0.4557    0.0053 C   0  0
  2  1  1  0
  3  2  1  0
  4  1  1  0
  5  4  1  0
  6  1  2  0
  7  2  2  0
  8  6  1  0
  9 14  1  0
 10  8  2  0
 11  8  1  0
 12  4  2  0
 13 10  1  0
 14 11  2  0
 15  9  1  0
 16  5  2  0
 17 12  1  0
 18 17  2  0
  5  3  1  0
 13  9  2  0
 16 18  1  0
M  END
> <Name>
JFD00460

> <code>
JFD00460

> <MOLFORMULA>
C14 H10 N2 O2

> <MOLWEIGHT>
238.245

> <product_name>
3-[(4-hydroxyphenyl)imino]indolin-2-one

> <c_log_p>
1.95

> <h_bond_donors>
2

> <rotatable_bonds>
2

> <h_bond_acceptors>
4

> <HIA>
OK

> <BBB>
BBB+/-

> <ACD_Code>
MFCD00219307

> <Flexibility>
0

> <PSA>
61.69

> <Parent_MW>
238.25

> <Clean Energy>
28.2888

> <Uncertainity_EPHB4>
2.06

> <Uncertainity_MEK1>
5.6

> <WEE1_POC>
94

> <EPHB4_POC>
100

> <MEK1_POC>
88

$$$$
BTB05679
  SciTegic04032018093D

 52 54  0  0  0  0            999 V2000
   -0.7920   -0.1407    0.0108 C   0  0
   -1.9329   -2.1804    0.0411 C   0  0
   -1.8994   -0.7718    0.0055 N   0  0
   -0.8346   -2.8195    0.0828 N   0  0
    0.3998   -0.8779    0.0547 N   0  0
    0.3790   -2.1436    0.0910 C   0  0
   -0.8360    1.2996   -0.0223 O   0  0
   -3.1417   -2.9568    0.0360 O   0  0
    1.5798   -2.8635    0.1375 N   0  0
    6.9651   -3.4266   -0.1410 C   0  0
    0.3904    2.0586   -0.0159 C   0  0
   -4.4254   -2.3178    0.0117 C   0  0
    5.5620   -2.2776   -0.1475 S   0  0
    2.7102    3.6496   -0.0043 C   0  0
   -7.0125   -1.2157   -0.0159 C   0  0
    3.8175    4.4056    0.0011 F   0  0
   -8.2467   -0.6906   -0.0267 F   0  0
    0.2917    3.5255   -0.0404 C   0  0
    1.6023    1.5011    0.0117 C   0  0
   -5.6115   -3.1857    0.0077 C   0  0
   -4.5965   -0.9944    0.0007 C   0  0
    1.3910    4.2789   -0.0344 C   0  0
    2.8099    2.3239    0.0174 C   0  0
   -6.8364   -2.6641   -0.0051 C   0  0
   -5.9462   -0.4182   -0.0144 C   0  0
    2.8368   -2.1669    0.0708 C   0  0
    8.2578   -2.6517   -0.4605 C   0  0
    6.7437   -4.5114   -1.2114 C   0  0
    7.0945   -4.0894    1.2429 C   0  0
    4.0082   -3.1702    0.1329 C   0  0
    1.5632   -3.8561    0.1843 H   0  0
   -0.6889    4.0007   -0.0636 H   0  0
    1.6930    0.4150    0.0303 H   0  0
   -5.4870   -4.2685    0.0152 H   0  0
   -3.7274   -0.3366    0.0029 H   0  0
    1.3064    5.3655   -0.0519 H   0  0
    3.7919    1.8512    0.0394 H   0  0
   -7.7076   -3.3190   -0.0076 H   0  0
   -6.0760    0.6641   -0.0244 H   0  0
    2.8899   -1.6095   -0.8644 H   0  0
    2.9101   -1.4761    0.9108 H   0  0
    9.1040   -3.3387   -0.4576 H   0  0
    8.4148   -1.8796    0.2928 H   0  0
    8.1705   -2.1877   -1.4429 H   0  0
    7.5863   -5.2027   -1.2085 H   0  0
    6.6618   -4.0432   -2.1923 H   0  0
    5.8260   -5.0571   -0.9920 H   0  0
    7.9393   -4.7780    1.2390 H   0  0
    6.1804   -4.6378    1.4706 H   0  0
    7.2555   -3.3220    2.0002 H   0  0
    3.8794   -3.9309   -0.6371 H   0  0
    4.0313   -3.6454    1.1136 H   0  0
  2  3  1  0
  3  1  2  0
  4  6  1  0
  5  1  1  0
  6  5  2  0
  7  1  1  0
  8  2  1  0
  9  6  1  0
 10 13  1  0
 11  7  1  0
 12  8  1  0
 13 30  1  0
 14 23  2  0
 15 25  2  0
 16 14  1  0
 17 15  1  0
 18 11  1  0
 19 11  2  0
 20 12  1  0
 21 12  2  0
 22 18  2  0
 23 19  1  0
 24 20  2  0
 25 21  1  0
 26  9  1  0
 27 10  1  0
 28 10  1  0
 29 10  1  0
 30 26  1  0
  2  4  2  0
 22 14  1  0
 24 15  1  0
  9 31  1  0
 18 32  1  0
 19 33  1  0
 20 34  1  0
 21 35  1  0
 22 36  1  0
 23 37  1  0
 24 38  1  0
 25 39  1  0
 26 40  1  0
 26 41  1  0
 27 42  1  0
 27 43  1  0
 27 44  1  0
 28 45  1  0
 28 46  1  0
 28 47  1  0
 29 48  1  0
 29 49  1  0
 29 50  1  0
 30 51  1  0
 30 52  1  0
M  END
> <Name>
BTB05679

> <Clean Energy>
5.91099

> <code>
BTB05679

> <MOLFORMULA>
C21 H22 F2 N4 O2 S

> <MOLWEIGHT>
432.493

> <product_name>
N2-[2-(tert-butylthio)ethyl]-4,6-di(4-fluorophenoxy)-1,3,5-triazin-2-amine

> <c_log_p>
6.1

> <h_bond_donors>
1

> <rotatable_bonds>
9

> <h_bond_acceptors>
6

> <HIA>
OK

> <BBB>
BBB+

> <ACD_Code>
MFCD00117213

> <Flexibility>
2

> <PSA>
69.16

> <Parent_MW>
432.49

> <Uncertainity_EPHB4>
2.06

> <Uncertainity_MEK1>
5.6

> <WEE1_POC>
95

> <EPHB4_POC>
92

> <MEK1_POC>
100

$$$$
75631935
  SciTegic04032018093D

 53 56  0  0  0  0            999 V2000
    1.0518   -0.7239   -1.0329 C   0  0
    1.0953   -1.1475    0.2245 N   0  0
    2.2230   -0.3323   -1.5874 N   0  0
   -0.0493   -0.6378   -1.7753 N   0  0
   -1.1865   -1.0495   -1.2199 C   0  0
   -0.0496   -1.4818    0.8009 C   0  0
   -1.2389   -1.4702    0.0995 C   0  0
    1.1603    1.2738    2.2183 N   0  0
    1.4987    1.9234    1.0808 C   0  0
    2.3925    0.5221   -2.7298 C   0  0
    3.5433   -0.6443   -1.1077 C   0  0
    3.8961    0.4434   -2.2166 C   0  0
   -2.4187   -1.0198   -2.0904 C   0  0  3  0  0  0
    2.5978    1.9549    0.5397 O   0  0
   -4.2407   -1.9155   -0.9578 O   0  0
   -0.0511   -1.8130    2.1230 N   0  0
    4.2983    1.6712   -1.6263 O   0  0
    2.1022    0.4720    3.0115 C   0  0
   -0.2099    1.5178    2.6486 C   0  0
   -3.2807   -2.2745   -1.9297 C   0  0
    0.2739    2.6720    0.5550 C   0  0
    1.4994   -0.7303    3.7682 C   0  0
   -0.8752    2.1550    1.4298 C   0  0
    1.1794   -1.9628    2.9000 C   0  0
   -3.3598    0.1216   -1.7051 C   0  0
   -4.6167   -0.5700   -1.1699 C   0  0
   -2.1708   -1.7678    0.5557 H   0  0
    2.1903    0.0595   -3.6944 H   0  0
    1.8847    1.4869   -2.7049 H   0  0
    3.7660   -0.4193   -0.0635 H   0  0
    3.8708   -1.6656   -1.2981 H   0  0
    4.6380    0.1539   -2.9630 H   0  0
   -2.0967   -0.9243   -3.1284 H   0  0
   -0.9208   -1.9979    2.5792 H   0  0
    3.6711    1.8599   -0.9302 H   0  0
    2.9080    0.1191    2.3652 H   0  0
    2.5702    1.1407    3.7340 H   0  0
   -0.2017    2.1976    3.5007 H   0  0
   -0.7175    0.6013    2.9411 H   0  0
   -3.7873   -2.5117   -2.8664 H   0  0
   -2.7172   -3.1565   -1.6226 H   0  0
    0.4395    3.7400    0.6898 H   0  0
    0.1260    2.4634   -0.5042 H   0  0
    2.2392   -1.0466    4.5045 H   0  0
    0.6344   -0.4299    4.3577 H   0  0
   -1.5795    2.9397    1.7030 H   0  0
   -1.4294    1.3952    0.8800 H   0  0
    2.0046   -2.2239    2.2347 H   0  0
    1.0078   -2.8285    3.5389 H   0  0
   -2.9169    0.7729   -0.9506 H   0  0
   -3.5987    0.7424   -2.5694 H   0  0
   -4.9779   -0.1232   -0.2436 H   0  0
   -5.4231   -0.5311   -1.9042 H   0  0
  2  1  2  0
  3  1  1  0
  4  1  1  0
  5  4  2  0
  6  2  1  0
  7  5  1  0
  8 18  1  0
  9  8  1  0
 10  3  1  0
 11  3  1  0
 12 11  1  0
 13  5  1  0
 14  9  2  0
 15 20  1  0
 16  6  1  0
 17 12  1  0
 18 22  1  0
 19  8  1  0
 20 13  1  0
 21  9  1  0
 22 24  1  0
 23 19  1  0
 24 16  1  0
 25 13  1  0
 26 25  1  0
  6  7  2  0
 10 12  1  0
 26 15  1  0
 23 21  1  0
  7 27  1  0
 10 28  1  0
 10 29  1  0
 11 30  1  0
 11 31  1  0
 12 32  1  0
 13 33  1  0
 16 34  1  0
 17 35  1  0
 18 36  1  0
 18 37  1  0
 19 38  1  0
 19 39  1  0
 20 40  1  0
 20 41  1  0
 21 42  1  0
 21 43  1  0
 22 44  1  0
 22 45  1  0
 23 46  1  0
 23 47  1  0
 24 48  1  0
 24 49  1  0
 25 50  1  0
 25 51  1  0
 26 52  1  0
 26 53  1  0
M  END
> <Name>
75631935

> <ID>
75631935

> <MolNumber>
57699

> <AbsoluteEnergy[CHARMm]>
-24.2419

> <Conformation Method>
BEST

> <Total Number of Conformations>
179

> <RB>
7

> <Hacc>
5

> <Supplier>
ChemBridge

> <clogP>
0.15

> <stereochemistry>
racemic

> <tPSA>
90.82

> <Forcefield>
CHARMm

> <Hdon>
2

> <LogSw>
-3.273

> <1x8b-01-s>
0

> <1x8b-02-s>
0

> <1x8b-03-s>
0

> <1x8b-04-s>
0

> <1x8b-05-s>
0

> <1x8b-06-s>
0

> <1x8b-07-s>
0

> <1x8b-08-s>
0

> <1x8b-09-s>
0

> <1x8b-10-s>
0

> <4aw5-01-s>
0

> <3v01-01-s>
0

> <3v01-02-s>
0

> <3v01-03-s>
0.592913

> <3v01-04-s>
0.842723

> <3v01-05-s>
0

> <3v01-06-s>
0

> <3v01-07-s>
0.500188

> <3v01-08-s>
0.885674

> <3v01-09-s>
0

> <3v01-10-s>
0

> <DistanceToCenter(1)>
0

> <Cluster(1)>
5

> <DistanceToCenter(2)>
0

> <Cluster(2)>
6

> <Uncertainity_EPHB4>
2.06

> <Uncertainity_MEK1>
5.6

> <WEE1_POC>
84

> <EPHB4_POC>
100

> <MEK1_POC>
100

$$$$
MarinLit-13111
  SciTegic04032018093D

 30 32  0  0  0  0            999 V2000
   -4.2513    1.8180    0.0003 C   0  0
   -4.3386    0.4345    0.0001 C   0  0
   -3.1975   -0.3527   -0.0001 C   0  0
   -1.9401    0.2613    0.0000 C   0  0
   -1.8594    1.6488    0.0003 C   0  0
   -3.0042    2.4298    0.0005 C   0  0
   -0.6953   -0.5146   -0.0002 C   0  0
    0.6124    0.2352    0.0000 C   0  0
    0.5288    1.5871    0.0003 C   0  0
   -0.6342    2.2808    0.0004 O   0  0
   -5.4267    2.5421    0.0006 O   0  0
   -3.3808   -1.7259   -0.0004 O   0  0
   -0.7568   -1.7068   -0.0005 O   0  0
    1.9547   -0.4332   -0.0001 C   0  0
    2.0827   -1.8273   -0.0003 C   0  0
    3.3236   -2.4384   -0.0004 C   0  0
    4.4770   -1.6821   -0.0002 C   0  0
    4.3870   -0.2976    0.0000 C   0  0
    3.1413    0.3147    0.0001 C   0  0
    5.6824   -2.3485   -0.0003 O   0  0
   -5.3055   -0.0448    0.0000 H   0  0
   -2.8802    3.5026    0.0007 H   0  0
    1.3716    2.2448    0.0005 H   0  0
   -5.3076    3.4834    0.0004 H   0  0
   -2.5369   -2.1736   -0.0005 H   0  0
    1.2512   -2.5089   -0.0004 H   0  0
    3.3922   -3.5161   -0.0005 H   0  0
    5.2596    0.3387    0.0001 H   0  0
    3.1631    1.3903    0.0003 H   0  0
    6.4291   -1.7656   -0.0002 H   0  0
  1  2  2  0
  1  6  1  0
  1 11  1  0
  2  3  1  0
  2 21  1  0
  3 12  1  0
  4  3  2  0
  4  5  1  0
  4  7  1  0
  5  6  2  0
  5 10  1  0
  6 22  1  0
  7  8  1  0
  7 13  2  0
  8  9  2  0
  8 14  1  0
  9 10  1  0
  9 23  1  0
 11 24  1  0
 12 25  1  0
 14 15  2  0
 14 19  1  0
 15 16  1  0
 15 26  1  0
 16 17  2  0
 16 27  1  0
 17 18  1  0
 17 20  1  0
 18 19  2  0
 18 28  1  0
 19 29  1  0
 20 30  1  0
M  END
> <Name>
MarinLit-13111

> <MarinLit_ID>
13111

> <INCHI_KEY>
TZBJGXHYKVUXJN-UHFFFAOYSA-N

> <SOURCE>
Ascomycota Ascochyta salicorniae

> <COMPOUND>
genistein

> <Forcefield>
CHARMm

> <PartialChargeMethod>
MomanyRone

> <UseResidueTemplateCharge>
True

> <ForcefieldBase>
CHARMm

> <ForcefieldFFML>
<?xml version="1.0" encoding="UTF-8"?>
<!DOCTYPE ffml SYSTEM "Ffml.dtd">
<ffml version="1.0">
<forcefield name="CHARMm" derivedFrom="CHARMm" base="CHARMm">
<atomTypes>
</atomTypes>
<parameters>
</parameters>
</forcefield>
</ffml>

> <Initial Potential Energy>
68.55

> <Initial RMS Gradient>
42.4119

> <Minimization Criteria>
CONJUG> Minimization exiting with gradient tolerance ( 0.0100000) satisfied.

> <CHARMm Energy>
24.7814

> <Potential Energy>
24.7814

> <RMS Gradient>
0.0087

> <Bond Energy>
1.49443

> <Angle Energy>
4.52779

> <Urey-Bradley Energy>
0

> <Dihedral Energy>
0

> <Improper Energy>
0

> <Van der Waals Energy>
7.398

> <Electrostatic Energy>
11.3612

> <Hydrogen Bond Energy>
0

> <Solvation Free Energy>
0

> <REMARK99>
REMARK  99  MacroMolecule created from Mol2 file
REMARK  99  MarinLit-13111
REMARK  99  PROTEIN
REMARK  99  USER_CHARGES
REMARK  99
REMARK  99

> <Uncertainity_EPHB4>
2.06

> <Uncertainity_MEK1>
5.6

> <WEE1_POC>
98

> <EPHB4_POC>
91

> <MEK1_POC>
91

$$$$
70885068
  SciTegic04032018093D

 24 26  0  0  0  0            999 V2000
    4.1264   -3.1817    0.0224 C   0  0
    5.2013   -2.4104    0.0621 C   0  0
    3.3896   -1.0950   -0.1202 N   0  0
    2.9850   -2.3880   -0.0932 N   0  0
    4.6624   -1.0681   -0.0349 C   0  0
    4.1349   -4.6447    0.1026 C   0  0
    2.9917   -5.3248    0.0490 N   0  0
    5.4665    0.1539   -0.0284 C   0  0
    5.2057   -5.2477    0.2330 O   0  0
    3.0015   -6.7586    0.1648 C   0  0
    4.8691    1.3425   -0.0979 C   0  0
    6.9272    0.0718    0.0566 C   0  0
    1.6355   -7.3273   -0.2706 C   0  0  1  0  0  0
    1.5954   -8.8301   -0.1717 C   0  0
    7.0001    2.4939   -0.0119 C   0  0
    5.6723    2.5682   -0.0888 C   0  0
    7.6575    1.1860    0.0638 C   0  0
    7.7353    3.6159   -0.0033 F   0  0
    0.5336   -6.7493    0.4304 O   0  0
    0.4246   -9.4510   -0.0339 C   0  0
    2.8366   -9.6121   -0.2160 C   0  0
    0.3747  -10.9118    0.0708 C   0  0
    2.7909  -10.9404   -0.1176 C   0  0
    1.5013  -11.6213    0.0321 C   0  0
  2  1  2  0
  3  4  1  0
  4  1  1  0
  5  2  1  0
  6  1  1  0
  7  6  1  0
  8  5  1  0
  9  6  2  0
 10  7  1  0
 11  8  2  0
 12  8  1  0
 13 10  1  0
 14 13  1  0
 15 17  1  0
 16 11  1  0
 17 12  2  0
 18 15  1  0
 19 13  1  0
 20 14  2  0
 21 14  1  0
 22 20  1  0
 23 21  2  0
 24 23  1  0
  5  3  2  0
 15 16  2  0
 24 22  2  0
M  END
> <Name>
70885068

> <ID>
70885068

> <Supplier>
ChemBridge

> <clogP>
1.44

> <RB>
5

> <tPSA>
78.01

> <Hacc>
3

> <Hdon>
3

> <LogSw>
-2.802

> <STEREOCHEMISTRY>
racemic

> <Clean Energy>
18.5477

> <Uncertainity_EPHB4>
2.06

> <Uncertainity_MEK1>
5.6

> <WEE1_POC>
83

> <EPHB4_POC>
100

> <MEK1_POC>
100

$$$$
XBX00307
  SciTegic04032018093D

 22 24  0  0  0  0            999 V2000
    0.6127    1.1332    0.0000 C   0  0
    0.6230   -0.2183   -0.0001 C   0  0
   -0.6472    1.8559   -0.0002 C   0  0
   -1.8782    1.1162    0.0003 C   0  0
   -0.5705   -0.9330    0.0002 O   0  0
   -1.7971   -0.3249    0.0000 C   0  0
   -3.0615    1.7317   -0.0002 C   0  0
    1.8924   -1.0182    0.0000 C   0  0
   -2.9120   -1.0547    0.0003 C   0  0
   -4.2897    0.9402    0.0002 C   0  0
    3.2240   -0.3896   -0.0002 C   0  0
    4.3273   -1.1319   -0.0003 C   0  0
   -0.6481    3.0915   -0.0002 O   0  0
   -4.2204   -0.3894    0.0002 C   0  0
    4.2268   -2.5867   -0.0001 C   0  0
    1.8097   -2.3490    0.0001 C   0  0
    1.7793    1.8881   -0.0003 O   0  0
    3.0289   -3.1691    0.0000 C   0  0
   -3.1378    3.1209   -0.0001 O   0  0
    5.5756   -0.5193   -0.0005 O   0  0
   -5.3882   -1.1446    0.0004 O   0  0
    5.3818   -3.3619   -0.0002 O   0  0
  2  1  2  0
  3  1  1  0
  4  3  1  0
  5  2  1  0
  6  4  1  0
  7  4  2  0
  8  2  1  0
  9  6  2  0
 10  7  1  0
 11  8  1  0
 12 11  2  0
 13  3  2  0
 14  9  1  0
 15 18  2  0
 16  8  2  0
 17  1  1  0
 18 16  1  0
 19  7  1  0
 20 12  1  0
 21 14  1  0
 22 15  1  0
  5  6  1  0
 10 14  2  0
 12 15  1  0
M  END
> <Name>
XBX00307

> <code>
XBX00307

> <MOLFORMULA>
C15 H10 O7

> <MOLWEIGHT>
302.237

> <product_name>
2-(3,4-dihydroxyphenyl)-3,5,7-trihydroxy-4H-chromen-4-one

> <c_log_p>
2.25

> <h_bond_donors>
5

> <rotatable_bonds>
1

> <h_bond_acceptors>
7

> <HIA>
poor

> <BBB>
BBB-

> <ACD_Code>
MFCD00006828

> <Flexibility>
0

> <PSA>
131.36

> <Parent_MW>
302.24

> <casno>
117-39-5

> <Clean Energy>
-0.75686

> <Uncertainity_EPHB4>
2.06

> <Uncertainity_MEK1>
5.6

> <MEK1_Kd>
3700

> <WEE1_POC>
86

> <EPHB4_POC>
91

> <MEK1_POC>
18

$$$$
RH00984
  SciTegic04032018093D

 11 12  0  0  0  0            999 V2000
    0.8334   -0.8843    0.0016 C   0  0
    0.4319    0.3381    0.0020 N   0  0
   -0.2535   -1.8160    0.0004 N   0  0
   -0.9572    0.2971    0.0011 C   0  0
   -1.3688   -1.0256    0.0000 C   0  0
    2.5380   -1.3588    0.0021 S   0  0
   -1.8106    1.3129    0.0010 C   0  0
   -2.6449   -1.3873   -0.0012 C   0  0
    3.5726    0.1254   -0.0031 C   0  0
   -3.6500   -0.3010   -0.0013 C   0  0
   -3.2539    0.9812   -0.0002 C   0  0
  2  1  2  0
  3  1  1  0
  4  2  1  0
  5  3  1  0
  6  1  1  0
  7  4  2  0
  8  5  2  0
  9  6  1  0
 10  8  1  0
 11  7  1  0
  5  4  1  0
 10 11  2  0
M  END
> <Name>
RH00984

> <code>
RH00984

> <MOLFORMULA>
C8 H8 N2 S

> <MOLWEIGHT>
164.231

> <product_name>
2-(methylthio)-1H-benzo[d]imidazole

> <c_log_p>
2.27

> <h_bond_donors>
1

> <rotatable_bonds>
1

> <h_bond_acceptors>
2

> <HIA>
OK

> <BBB>
BBB+

> <ACD_Code>
MFCD00005594

> <Flexibility>
0

> <PSA>
28.68

> <Parent_MW>
164.2

> <casno>
7152-24-1

> <Clean Energy>
20.6102

> <Uncertainity_EPHB4>
2.06

> <Uncertainity_MEK1>
5.6

> <WEE1_POC>
79

> <EPHB4_POC>
95

> <MEK1_POC>
100

$$$$
RF04421
  SciTegic04032018093D

 23 24  0  0  0  0            999 V2000
   -1.2955   -0.4093    0.0284 C   0  0
    0.0279    0.3140    0.0556 C   0  0
   -2.5023    0.2000   -0.0206 C   0  0
   -2.7264    1.7070   -0.0550 C   0  0
    1.1741   -0.3943    0.0244 N   0  0
   -1.2674   -1.8818    0.0459 C   0  0
   -2.3430   -2.5672    0.0274 N   0  0
    2.4877    0.2036    0.0229 C   0  0
    3.5660   -0.5817    0.0163 C   0  0
   -3.6010   -1.9505   -0.0153 C   0  0
    4.9141    0.0119    0.0091 C   0  0
   -3.6954   -0.6265   -0.0380 C   0  0
    0.0660    1.5442    0.1047 O   0  0
   -2.2708    2.2596    1.1258 F   0  0
   -2.0048    2.2779   -1.0884 F   0  0
   -4.0676    1.9799   -0.2113 F   0  0
    2.6800    1.6684    0.0208 C   0  0
    5.0658    1.3360    0.0072 C   0  0
   -4.7662   -2.7278   -0.0297 N   0  0
    3.3859   -2.2994    0.0142 Cl  0  0
    3.8974    2.2000    0.0129 C   0  0
    6.6460    2.0339   -0.0019 Cl  0  0
   -6.0601   -2.0949   -0.0562 C   0  0
  2  1  1  0
  3  1  2  0
  4  3  1  0
  5  2  1  0
  6  1  1  0
  7  6  2  0
  8  5  1  0
  9  8  2  0
 10  7  1  0
 11  9  1  0
 12  3  1  0
 13  2  2  0
 14  4  1  0
 15  4  1  0
 16  4  1  0
 17  8  1  0
 18 21  1  0
 19 10  1  0
 20  9  1  0
 21 17  2  0
 22 18  1  0
 23 19  1  0
 12 10  2  0
 11 18  2  0
M  END
> <Name>
RF04421

> <Clean Energy>
15.5838

> <code>
RF04421

> <MOLFORMULA>
C14 H10 Cl2 F3 N3 O

> <MOLWEIGHT>
364.153

> <product_name>
N-(2,4-dichlorophenyl)-6-(methylamino)-4-(trifluoromethyl)nicotinamide

> <c_log_p>
4.15

> <h_bond_donors>
2

> <rotatable_bonds>
3

> <h_bond_acceptors>
4

> <HIA>
OK

> <BBB>
BBB-

> <ACD_Code>
MFCD02180573

> <Flexibility>
2

> <PSA>
54.02

> <Parent_MW>
364.15

> <ADMET_Solubility>
-5.891

> <ADMET_Solubility_Level>
2

> <ADMET_Unknown_AlogP98>
0

> <ADMET_BBB>
0.251

> <ADMET_BBB_Level>
1

> <ADMET_EXT_CYP2D6>
-4.14207

> <ADMET_EXT_CYP2D6#Prediction>
false

> <ADMET_EXT_CYP2D6_Applicability>
All properties and OPS components are within expected ranges.

> <ADMET_EXT_CYP2D6_Applicability#MD>
16.1896

> <ADMET_EXT_CYP2D6_Applicability#MDpvalue>
8.90876e-08

> <ADMET_EXT_Hepatotoxic>
-1.33099

> <ADMET_EXT_Hepatotoxic#Prediction>
true

> <ADMET_EXT_Hepatotoxic_Applicability>
All properties and OPS components are within expected ranges.

> <ADMET_EXT_Hepatotoxic_Applicability#MD>
12.7642

> <ADMET_EXT_Hepatotoxic_Applicability#MDpvalue>
5.60132e-06

> <ADMET_Absorption_Level>
0

> <ADMET_EXT_PPB>
7.02903

> <ADMET_EXT_PPB#Prediction>
true

> <ADMET_EXT_PPB_Applicability>
All properties and OPS components are within expected ranges.

> <ADMET_EXT_PPB_Applicability#MD>
13.5126

> <ADMET_EXT_PPB_Applicability#MDpvalue>
0.00083629

> <ADMET_AlogP98>
4.083

> <ADMET_PSA_2D>
54.182

> <DistanceToCenter(1)>
0

> <Cluster(1)>
7

> <DistanceToCenter(2)>
0

> <Cluster(2)>
3

> <Uncertainity_EPHB4>
2.06

> <Uncertainity_MEK1>
5.6

> <WEE1_POC>
94

> <EPHB4_POC>
97

> <MEK1_POC>
100

$$$$
BTB09737
  SciTegic04032018093D

 44 45  0  0  0  0            999 V2000
   -3.4185   -1.5237    0.1969 N   0  0
   -2.4503    0.5940   -0.0113 N   0  0
   -2.3615   -0.8108    0.1454 C   0  0
    1.3937   -1.7040    0.3195 C   0  0  2  0  0  0
    2.6652   -0.9995    0.0485 N   0  0
    3.8366   -1.4820    0.5258 C   0  0
   -3.5905    1.1628   -0.1002 C   0  0
   -4.6907   -0.9556    0.0907 C   0  0
    1.2713   -3.0255   -0.4984 C   0  0
   -4.8023    0.3607   -0.0541 C   0  0
   -1.1125   -1.4619    0.2653 N   0  0
    0.1513   -0.7693    0.0172 C   0  0
    3.8483   -2.5030    1.1962 O   0  0
    5.1230   -0.8086    0.2305 C   0  0
    0.1850   -3.3115   -1.0085 O   0  0
    2.3126   -3.9793   -0.6167 N   0  0
   -5.8289   -1.7859    0.1378 O   0  0
   -3.6920    2.5487   -0.2356 O   0  0
    6.2570   -1.4446    0.5659 C   0  0
    5.1973    0.5032   -0.4143 C   0  0
   -2.3933    3.1423   -0.2410 C   0  0
   -7.0441   -1.0286    0.0133 C   0  0
    7.5562   -0.8314    0.2827 C   0  0
    6.3800    1.0642   -0.6619 C   0  0
    7.6177    0.3632   -0.2995 C   0  0
    1.4071   -1.9941    1.3779 H   0  0
    2.6522   -0.1750   -0.4959 H   0  0
   -5.7828    0.8296   -0.1366 H   0  0
   -1.1077   -2.4251    0.4828 H   0  0
    0.2052    0.1101    0.6590 H   0  0
    0.1866   -0.4600   -1.0274 H   0  0
    2.1363   -4.8326   -1.0941 H   0  0
    3.1939   -3.8228   -0.2404 H   0  0
    6.2104   -2.4200    1.0502 H   0  0
    4.2809    1.0234   -0.6933 H   0  0
   -2.4875    4.2229   -0.3472 H   0  0
   -1.8150    2.7448   -1.0752 H   0  0
   -1.8845    2.9128    0.6952 H   0  0
   -7.8991   -1.7034    0.0541 H   0  0
   -7.0461   -0.4978   -0.9388 H   0  0
   -7.1101   -0.3096    0.8298 H   0  0
    8.4745   -1.3546    0.5494 H   0  0
    6.4287    2.0453   -1.1344 H   0  0
    8.5852    0.8204   -0.5070 H   0  0
  2  3  1  0
  3  1  2  0
  4 12  1  0
  5  4  1  0
  6  5  1  0
  7 10  1  0
  8  1  1  0
  9  4  1  0
 10  8  2  0
 11  3  1  0
 12 11  1  0
 13  6  2  0
 14  6  1  0
 15  9  2  0
 16  9  1  0
 17  8  1  0
 18  7  1  0
 19 14  2  0
 20 14  1  0
 21 18  1  0
 22 17  1  0
 23 19  1  0
 24 20  2  0
 25 24  1  0
  2  7  2  0
 23 25  2  0
  4 26  1  0
  5 27  1  0
 10 28  1  0
 11 29  1  0
 12 30  1  0
 12 31  1  0
 16 32  1  0
 16 33  1  0
 19 34  1  0
 20 35  1  0
 21 36  1  0
 21 37  1  0
 21 38  1  0
 22 39  1  0
 22 40  1  0
 22 41  1  0
 23 42  1  0
 24 43  1  0
 25 44  1  0
M  END
> <Name>
BTB09737

> <Clean Energy>
21.4113

> <code>
BTB09737

> <MOLFORMULA>
C16 H19 N5 O4

> <MOLWEIGHT>
345.357

> <product_name>
N1-(2-amino-1-{[(4,6-dimethoxypyrimidin-2-yl)amino]methyl}-2-oxoethyl)benzamide

> <c_log_p>
1.34

> <h_bond_donors>
3

> <rotatable_bonds>
8

> <h_bond_acceptors>
9

> <HIA>
OK

> <BBB>
BBB-

> <ACD_Code>
MFCD00829057

> <Flexibility>
3

> <PSA>
128.46

> <Parent_MW>
345.36

> <Uncertainity_EPHB4>
2.06

> <Uncertainity_MEK1>
5.6

> <WEE1_POC>
97

> <EPHB4_POC>
87

> <MEK1_POC>
100

$$$$
SEW05315
  SciTegic04032018093D

 27 29  0  0  0  0            999 V2000
   -0.3700    1.0504   -0.0111 C   0  0
   -0.1168   -0.3962   -0.0082 C   0  0
   -1.8214    1.1126   -0.0071 C   0  0
   -1.1680   -1.1109   -0.0013 N   0  0
   -2.2638   -0.2298    0.0009 C   0  0
    0.5413    2.0111   -0.0126 C   0  0
    4.5581    0.4917    0.0035 C   0  0
   -2.6637    2.1419   -0.0056 C   0  0
   -3.5447   -0.5598    0.0068 C   0  0
    3.5141   -0.3188    0.0021 C   0  0
    4.3518    1.9488   -0.0006 C   0  0
    1.9477    1.5609   -0.0004 C   0  0
   -4.1325    1.8052    0.0035 C   0  0
   -4.5334    0.5270    0.0052 C   0  0
    2.6498    0.6937   -0.0369 C   0  0
    3.1007    2.4567   -0.0053 C   0  0
    0.6284   -1.3064   -0.0080 O   0  0
    5.8690    0.0054   -0.0005 O   0  0
    3.6830   -1.7082   -0.0113 O   0  0
    5.4240    2.8205    0.0089 O   0  0
   -5.0415    2.8553    0.0006 O   0  0
   -5.8839    0.1378    0.0240 O   0  0
    7.3276    0.4666   -0.5051 C   0  0
    5.0549   -2.0946   -0.0048 C   0  0
    6.1407    2.5452    0.5421 C   0  0
   -7.2151    0.8420    0.5451 C   0  0
   -5.8737    2.7807   -0.5251 C   0  0
  2  1  1  0
  3  1  1  0
  4  2  1  0
  5  3  1  0
  6  1  2  0
  7 11  1  0
  8  3  2  0
  9  5  2  0
 10 15  1  0
 11 16  2  0
 12  6  1  0
 13  8  1  0
 14 13  2  0
 15 12  2  0
 16 12  1  0
 17  2  2  0
 18  7  1  0
 19 10  1  0
 20 11  1  0
 21 13  1  0
 22 14  1  0
 23 18  1  0
 24 19  1  0
 25 20  1  0
 26 22  1  0
 27 21  1  0
  5  4  1  0
 10  7  2  0
  9 14  1  0
M  END
> <Name>
SEW05315

> <Clean Energy>
634.378

> <code>
SEW05315

> <MOLFORMULA>
C20 H21 N O6

> <MOLWEIGHT>
371.387

> <product_name>
5,6-dimethoxy-3-(3,4,5-trimethoxybenzylidene)indolin-2-one

> <c_log_p>
1.96

> <h_bond_donors>
1

> <rotatable_bonds>
7

> <h_bond_acceptors>
7

> <HIA>
OK

> <BBB>
BBB+

> <ACD_Code>
MFCD00662522

> <Flexibility>
2

> <PSA>
75.25

> <Parent_MW>
371.39

> <ADMET_Solubility>
-4.176

> <ADMET_Solubility_Level>
2

> <ADMET_Unknown_AlogP98>
0

> <ADMET_BBB>
-0.518

> <ADMET_BBB_Level>
2

> <ADMET_EXT_CYP2D6>
-5.65904

> <ADMET_EXT_CYP2D6#Prediction>
false

> <ADMET_EXT_CYP2D6_Applicability>
All properties and OPS components are within expected ranges.

> <ADMET_EXT_CYP2D6_Applicability#MD>
15.2043

> <ADMET_EXT_CYP2D6_Applicability#MDpvalue>
1.19794e-06

> <ADMET_EXT_Hepatotoxic>
-0.816152

> <ADMET_EXT_Hepatotoxic#Prediction>
true

> <ADMET_EXT_Hepatotoxic_Applicability>
All properties and OPS components are within expected ranges.

> <ADMET_EXT_Hepatotoxic_Applicability#MD>
8.68044

> <ADMET_EXT_Hepatotoxic_Applicability#MDpvalue>
0.618919

> <ADMET_Absorption_Level>
0

> <ADMET_EXT_PPB>
3.1113

> <ADMET_EXT_PPB#Prediction>
true

> <ADMET_EXT_PPB_Applicability>
All properties and OPS components are within expected ranges.

> <ADMET_EXT_PPB_Applicability#MD>
13.3935

> <ADMET_EXT_PPB_Applicability#MDpvalue>
0.00133682

> <ADMET_AlogP98>
2.649

> <ADMET_PSA_2D>
74.761

> <DistanceToCenter(1)>
0.782051

> <Cluster(1)>
4

> <DistanceToCenter(2)>
0.742424

> <Cluster(2)>
3

> <Uncertainity_EPHB4>
2.06

> <Uncertainity_MEK1>
5.6

> <WEE1_POC>
84

> <EPHB4_POC>
100

> <MEK1_POC>
100

$$$$
27846780
  SciTegic04032018093D

 36 37  0  0  0  0            999 V2000
    1.0813    2.3170    0.5952 C   0  0
    0.9863    2.2053    2.0193 C   0  0
    2.0827    3.1925    0.4231 N   0  0
    2.5926    3.6176    1.5870 N   0  0
    1.9634    3.0468    2.6171 C   0  0
    0.3934    1.7347   -0.4616 C   0  0
   -0.6201    0.8911   -0.2009 N   0  0
   -0.2577   -2.5365   -0.7660 C   0  0
    1.0030   -2.0216   -0.7968 O   0  0
    0.7437    2.0190   -1.6013 O   0  0
   -0.0996    1.2327    2.9280 Cl  0  0
   -0.3634   -3.6374   -1.6222 C   0  0
    1.7078   -2.7882   -1.6743 C   0  0
    0.8967   -3.7989   -2.2027 C   0  0
   -1.3583   -1.9572    0.0920 C   0  0
   -1.3366    0.2215   -1.2745 C   0  0
   -2.1879   -0.9277   -0.7001 C   0  0  3  0  0  0
    2.2732    3.2875    4.0763 C   0  0
   -2.8243    0.1546    1.3712 O   0  0
   -3.3414   -0.3991    0.1662 C   0  0
    2.3714    3.4576   -0.4775 H   0  0
   -0.9397    0.6954    0.7260 H   0  0
   -1.2415   -4.2407   -1.7995 H   0  0
    2.7469   -2.6335   -1.9243 H   0  0
    1.1884   -4.5537   -2.9181 H   0  0
   -0.9148   -1.5053    0.9797 H   0  0
   -1.9965   -2.7681    0.4430 H   0  0
   -1.9530    0.9743   -1.7678 H   0  0
   -0.6037   -0.1372   -1.9997 H   0  0
   -2.6367   -1.4440   -1.5501 H   0  0
    3.2968    3.6442    4.1930 H   0  0
    2.1622    2.3670    4.6485 H   0  0
    1.5959    4.0375    4.4840 H   0  0
   -3.5307    0.4564    1.9386 H   0  0
   -4.0237   -1.2262    0.3926 H   0  0
   -3.9053    0.3576   -0.3897 H   0  0
  2  1  2  0
  3  1  1  0
  4  3  1  0
  5  2  1  0
  6  1  1  0
  7  6  1  0
  8 15  1  0
  9  8  1  0
 10  6  2  0
 11  2  1  0
 12  8  2  0
 13  9  1  0
 14 12  1  0
 15 17  1  0
 16  7  1  0
 17 16  1  0
 18  5  1  0
 19 20  1  0
 20 17  1  0
  5  4  2  0
 13 14  2  0
  3 21  1  0
  7 22  1  0
 12 23  1  0
 13 24  1  0
 14 25  1  0
 15 26  1  0
 15 27  1  0
 16 28  1  0
 16 29  1  0
 17 30  1  0
 18 31  1  0
 18 32  1  0
 18 33  1  0
 19 34  1  0
 20 35  1  0
 20 36  1  0
M  END
> <Name>
27846780

> <ID>
27846780

> <MolNumber>
52298

> <AbsoluteEnergy[CHARMm]>
-0.20101

> <Conformation Method>
BEST

> <Total Number of Conformations>
136

> <RB>
6

> <Hacc>
4

> <Supplier>
ChemBridge

> <clogP>
0.22

> <stereochemistry>
racemic

> <tPSA>
91.15

> <Forcefield>
CHARMm

> <Hdon>
3

> <LogSw>
-2.87

> <1x8b-01-s>
0.728425

> <1x8b-02-s>
0

> <1x8b-03-s>
0.398535

> <1x8b-04-s>
0.148032

> <1x8b-05-s>
0.493026

> <1x8b-06-s>
0.191337

> <1x8b-07-s>
0.60819

> <1x8b-08-s>
0.538737

> <1x8b-09-s>
0

> <1x8b-10-s>
0.681121

> <4aw5-01-s>
0

> <3v01-01-s>
0

> <3v01-02-s>
0

> <3v01-03-s>
0

> <3v01-04-s>
0

> <3v01-05-s>
0

> <3v01-06-s>
0

> <3v01-07-s>
0

> <3v01-08-s>
0.180763

> <3v01-09-s>
0

> <3v01-10-s>
0

> <DistanceToCenter(1)>
0.736842

> <Cluster(1)>
6

> <DistanceToCenter(2)>
0.757143

> <Cluster(2)>
3

> <Uncertainity_EPHB4>
2.06

> <Uncertainity_MEK1>
5.6

> <WEE1_POC>
80

> <EPHB4_POC>
90

> <MEK1_POC>
100

$$$$
68113967
  SciTegic04032018093D

 23 24  0  0  0  0            999 V2000
    5.9725  -10.6462    0.0825 C   0  0
    7.4725   -5.1146   -0.2511 C   0  0
    4.9232   -9.5169    0.0328 C   0  0
    6.4025   -5.9422   -0.1676 N   0  0
    7.3499   -3.6545   -0.1499 C   0  0
    7.2641   -0.9529    0.0456 C   0  0
    5.1514   -8.1684   -0.0961 C   0  0
    8.4989   -1.5984   -0.0802 N   0  0
    6.1739   -1.6207    0.0712 N   0  0
    6.5493   -7.4228   -0.2181 C   0  0  2  0  0  0
    8.5641   -2.8610   -0.1757 C   0  0
    6.1825   -3.0320   -0.0247 C   0  0
    8.6136   -5.5611   -0.4127 O   0  0
    6.9132  -10.4965   -0.9182 F   0  0
    6.6244  -10.6242    1.2994 F   0  0
    5.3398  -11.8663   -0.0303 F   0  0
    7.2392    0.4398    0.1422 N   0  0
    3.5338   -9.9984    0.1252 C   0  0
    3.9737   -7.2782   -0.1522 C   0  0
    7.6851   -7.9002    0.7391 C   0  0
    8.4753    1.1764    0.1186 C   0  0
    2.5014   -9.1675    0.0755 C   0  0
    2.7316   -7.7490   -0.0713 C   0  0
  2  4  1  0
  3  1  1  0
  4 10  1  0
  5  2  1  0
  6  9  2  0
  7  3  2  0
  8 11  2  0
  9 12  1  0
 10  7  1  0
 11  5  1  0
 12  5  2  0
 13  2  2  0
 14  1  1  0
 15  1  1  0
 16  1  1  0
 17  6  1  0
 18  3  1  0
 19  7  1  0
 20 10  1  0
 21 17  1  0
 22 18  2  0
 23 22  1  0
 23 19  2  0
  6  8  1  0
M  END
> <Name>
68113967

> <ID>
68113967

> <Supplier>
ChemBridge

> <clogP>
1.87

> <RB>
5

> <tPSA>
66.91

> <Hacc>
3

> <Hdon>
2

> <LogSw>
-3.16

> <stereochemistry>
racemic

> <Clean Energy>
28.5084

> <Uncertainity_EPHB4>
2.06

> <Uncertainity_MEK1>
5.6

> <WEE1_POC>
86

> <EPHB4_POC>
94

> <MEK1_POC>
100

$$$$
RJC00213
  SciTegic04032018093D

 25 28  0  0  0  0            999 V2000
    1.4813   -0.8059   -0.0002 C   0  0
    1.4652    0.5855    0.0000 C   0  0
    0.1080   -1.4684   -0.0002 C   0  0
   -1.0859   -0.6854    0.0002 C   0  0
    0.2222    1.2359    0.0000 O   0  0
   -0.9968    0.6290    0.0000 C   0  0
   -2.4074   -1.3437    0.0000 C   0  0
   -2.2261    1.4404    0.0002 C   0  0
   -3.5153   -0.6085    0.0001 C   0  0
    2.6105    1.6566    0.0016 C   0  0
    2.7201   -1.8168   -0.0019 C   0  0
   -0.0338   -2.6926   -0.0015 O   0  0
   -3.4218    0.8477    0.0001 C   0  0
   -2.5077   -2.7327   -0.0001 O   0  0
   -4.5839    1.6136    0.0002 O   0  0
    4.0595    1.4231    0.0128 C   0  0
    2.2108    2.9316   -0.0065 C   0  0
    2.4766   -3.2799    0.0101 C   0  0
    3.9940   -1.4507   -0.0152 C   0  0
    5.0968   -2.4108   -0.0171 C   0  0
    3.4710   -4.1649    0.0083 C   0  0
    4.9435    2.4181    0.0139 C   0  0
    3.1808    4.0411   -0.0055 C   0  0
    4.4864    3.7918    0.0041 C   0  0
    4.8462   -3.7126   -0.0057 C   0  0
  2  1  2  0
  3  1  1  0
  4  3  1  0
  5  2  1  0
  6  4  2  0
  7  4  1  0
  8  6  1  0
  9  7  2  0
 10  2  1  0
 11  1  1  0
 12  3  2  0
 13  9  1  0
 14  7  1  0
 15 13  1  0
 16 10  1  0
 17 10  2  0
 18 11  1  0
 19 11  2  0
 20 19  1  0
 21 18  2  0
 22 16  2  0
 23 17  1  0
 24 23  2  0
 25 20  2  0
  5  6  1  0
 21 25  1  0
  8 13  2  0
 22 24  1  0
M  END
> <Name>
RJC00213

> <code>
RJC00213

> <MOLFORMULA>
C21 H14 O4

> <MOLWEIGHT>
330.338

> <product_name>
5,7-dihydroxy-2,3-diphenyl-4H-chromen-4-one

> <c_log_p>
5.1

> <h_bond_donors>
2

> <rotatable_bonds>
2

> <h_bond_acceptors>
4

> <HIA>
OK

> <BBB>
BBB+/-

> <ACD_Code>
MFCD00205547

> <Flexibility>
0

> <PSA>
70.67

> <Parent_MW>
330.34

> <Clean Energy>
20.6299

> <Uncertainity_EPHB4>
2.06

> <Uncertainity_MEK1>
5.6

> <WEE1_POC>
82

> <EPHB4_POC>
84

> <MEK1_POC>
100

$$$$
10541965
  SciTegic04032018093D

 43 45  0  0  0  0            999 V2000
    0.5700    1.0026   -2.3540 C   0  0
    2.7528    0.7985   -1.7869 C   0  0
    1.4482    0.8098   -1.2760 C   0  0
    2.7366    0.9776   -3.1424 N   0  0
    1.4061    1.0900   -3.3935 N   0  0
    3.9894    0.6165   -0.9666 C   0  0
   -0.8095    1.0874   -2.3940 C   0  0
    3.9673    0.4782    0.3841 O   0  0
    5.2637    0.5731   -1.5085 C   0  0
    5.2824    0.3417    0.7293 C   0  0
   -1.4454    0.9757   -1.2191 N   0  0
    6.1077    0.3954   -0.4065 C   0  0
   -5.0767   -2.1634    3.7508 S   0  0
   -3.4876   -1.3046    1.9122 C   0  0
   -4.8101   -1.7279    2.1309 C   0  0
   -3.4760   -1.8149    4.1950 C   0  0
   -1.3753    1.2561   -3.4667 O   0  0
   -2.7248   -1.3589    3.1001 C   0  0
   -2.9435   -0.8461    0.5770 C   0  0
   -2.8917    1.0469   -1.1084 C   0  0
   -3.3131    0.6265    0.3088 C   0  0  3  0  0  0
   -1.3350    1.3767    1.5135 O   0  0
    5.7470    0.1595    2.1556 C   0  0
   -2.7384    1.5833    1.3711 C   0  0
    1.1689    0.6908   -0.2395 H   0  0
    1.0289    1.2304   -4.2901 H   0  0
    5.5427    0.6576   -2.5485 H   0  0
   -0.9238    0.8713   -0.3707 H   0  0
    7.1854    0.3148   -0.4255 H   0  0
   -5.5645   -1.7697    1.3594 H   0  0
   -3.0820   -1.9287    5.1941 H   0  0
   -1.6829   -1.0776    3.1517 H   0  0
   -3.3480   -1.4857   -0.2076 H   0  0
   -1.8623   -0.9867    0.5700 H   0  0
   -3.1825    2.0748   -1.3297 H   0  0
   -3.3235    0.3924   -1.8681 H   0  0
   -4.4001    0.7120    0.3477 H   0  0
   -0.9761    1.9502    2.1875 H   0  0
    5.9232    1.1291    2.6212 H   0  0
    6.6740   -0.4137    2.1844 H   0  0
    4.9940   -0.3731    2.7362 H   0  0
   -3.2472    1.4185    2.3272 H   0  0
   -2.9412    2.6182    1.0733 H   0  0
  2  3  1  0
  3  1  2  0
  4  5  1  0
  5  1  1  0
  6  2  1  0
  7  1  1  0
  8  6  1  0
  9  6  2  0
 10  8  1  0
 11  7  1  0
 12  9  1  0
 13 15  1  0
 14 19  1  0
 15 14  2  0
 16 18  2  0
 17  7  2  0
 18 14  1  0
 19 21  1  0
 20 11  1  0
 21 20  1  0
 22 24  1  0
 23 10  1  0
 24 21  1  0
  4  2  2  0
 12 10  2  0
 16 13  1  0
  3 25  1  0
  5 26  1  0
  9 27  1  0
 11 28  1  0
 12 29  1  0
 15 30  1  0
 16 31  1  0
 18 32  1  0
 19 33  1  0
 19 34  1  0
 20 35  1  0
 20 36  1  0
 21 37  1  0
 22 38  1  0
 23 39  1  0
 23 40  1  0
 23 41  1  0
 24 42  1  0
 24 43  1  0
M  END
> <Name>
10541965

> <ID>
10541965

> <MolNumber>
20027

> <AbsoluteEnergy[CHARMm]>
-6.8356

> <Conformation Method>
BEST

> <Total Number of Conformations>
157

> <RB>
7

> <Hacc>
4

> <STEREOCHEMISTRY>
racemic

> <Supplier>
ChemBridge

> <clogP>
1.43

> <tPSA>
91.15

> <Forcefield>
CHARMm

> <Hdon>
3

> <LogSw>
-2.94

> <1x8b-01-s>
0.683581

> <1x8b-02-s>
0

> <1x8b-03-s>
0

> <1x8b-04-s>
0.703974

> <1x8b-05-s>
0

> <1x8b-06-s>
0.26078

> <1x8b-07-s>
0.580254

> <1x8b-08-s>
0.212206

> <1x8b-09-s>
0.298169

> <1x8b-10-s>
0.297031

> <4aw5-01-s>
0

> <3v01-01-s>
0

> <3v01-02-s>
0

> <3v01-03-s>
0

> <3v01-04-s>
0

> <3v01-05-s>
0

> <3v01-06-s>
0

> <3v01-07-s>
0

> <3v01-08-s>
0

> <3v01-09-s>
0

> <3v01-10-s>
0

> <DistanceToCenter(1)>
0.755814

> <Cluster(1)>
7

> <DistanceToCenter(2)>
0.742857

> <Cluster(2)>
1

> <Uncertainity_EPHB4>
2.06

> <Uncertainity_MEK1>
5.6

> <WEE1_POC>
77

> <EPHB4_POC>
100

> <MEK1_POC>
100

$$$$
27394300
  SciTegic04032018093D

 48 51  0  0  0  0            999 V2000
    1.1774    0.0225   -0.1211 C   0  0
    1.4503   -1.1918   -0.7577 C   0  0
    1.8731    1.0516   -0.6522 N   0  0
    0.2951    0.1073    0.9675 C   0  0
    2.4341   -0.8693   -1.7228 C   0  0
   -0.2047    1.3194    1.3543 N   0  0
    2.6848    0.5325   -1.6480 C   0  0
   -0.7942    1.4372    2.6879 C   0  0
   -2.3165    1.3982    2.5142 C   0  0  1  0  0  0
   -2.7584    2.6318    1.6892 C   0  0  2  0  0  0
   -0.4816    2.4621    0.4667 C   0  0
   -2.0055    2.6540    0.3394 C   0  0
    3.1174   -1.6290   -2.6425 C   0  0
    0.8717   -2.5498   -0.5385 C   0  0
   -0.0202   -0.8965    1.5963 O   0  0
    3.5996    1.1184   -2.4824 C   0  0
    4.0494   -1.0202   -3.4827 C   0  0
   -2.7329    0.2491    1.7974 O   0  0
   -2.4095    3.8304    2.3556 O   0  0
    4.2976    0.3494   -3.4136 C   0  0
    4.9166   -1.9824   -4.6366 Cl  0  0
   -4.2764    2.6115    1.4314 C   0  0
   -0.4917   -2.7643   -0.6338 C   0  0
    1.6885   -3.6263   -0.2452 C   0  0
    1.1583   -4.8985   -0.0542 C   0  0
   -1.0351   -4.0325   -0.4505 C   0  0
   -0.2096   -5.1104   -0.1603 C   0  0
    1.8277    1.9820   -0.3506 H   0  0
   -0.4867    2.3837    3.1329 H   0  0
   -0.4339    0.6641    3.3707 H   0  0
   -2.8098    1.3880    3.4893 H   0  0
   -0.0801    2.3404   -0.5359 H   0  0
   -0.0293    3.3584    0.8920 H   0  0
   -2.2214    3.5788   -0.1958 H   0  0
   -2.3924    1.8461   -0.2833 H   0  0
    2.9335   -2.6924   -2.7155 H   0  0
    3.7833    2.1805   -2.4192 H   0  0
   -2.1282   -0.4749    1.9589 H   0  0
   -2.9312    3.9345    3.1459 H   0  0
    5.0194    0.8174   -4.0686 H   0  0
   -4.8515    2.5200    2.3533 H   0  0
   -4.5483    1.7599    0.8066 H   0  0
   -4.6050    3.5152    0.9169 H   0  0
   -1.1576   -1.9411   -0.8519 H   0  0
    2.7565   -3.4892   -0.1500 H   0  0
    1.8144   -5.7233    0.1815 H   0  0
   -2.1033   -4.1755   -0.5278 H   0  0
   -0.6255   -6.0969   -0.0130 H   0  0
  2  1  2  0
  3  1  1  0
  4  1  1  0
  5  2  1  0
  6  4  1  0
  7  3  1  0
  8  6  1  0
  9  8  1  0
 10 12  1  0
 11  6  1  0
 12 11  1  0
 13  5  1  0
 14  2  1  0
 15  4  2  0
 16  7  1  0
 17 13  2  0
  9 18  1  0
 10 19  1  0
 20 16  2  0
 21 17  1  0
 10 22  1  0
 23 14  2  0
 24 14  1  0
 25 24  2  0
 26 23  1  0
 27 25  1  0
  7  5  2  0
 17 20  1  0
 10  9  1  0
 26 27  2  0
  3 28  1  0
  8 29  1  0
  8 30  1  0
  9 31  1  0
 11 32  1  0
 11 33  1  0
 12 34  1  0
 12 35  1  0
 13 36  1  0
 16 37  1  0
 18 38  1  0
 19 39  1  0
 20 40  1  0
 22 41  1  0
 22 42  1  0
 22 43  1  0
 23 44  1  0
 24 45  1  0
 25 46  1  0
 26 47  1  0
 27 48  1  0
M  END
> <Name>
27394300

> <ID>
27394300

> <MolNumber>
6068

> <AbsoluteEnergy[CHARMm]>
8.81866

> <Conformation Method>
BEST

> <Total Number of Conformations>
58

> <RB>
2

> <Hacc>
3

> <STEREOCHEMISTRY>
racemic

> <Supplier>
ChemBridge

> <clogP>
1.62

> <tPSA>
76.56

> <Forcefield>
CHARMm

> <Hdon>
3

> <LogSw>
-3.389

> <1x8b-01-s>
0

> <1x8b-02-s>
0

> <1x8b-03-s>
0

> <1x8b-04-s>
0

> <1x8b-05-s>
0

> <1x8b-06-s>
0

> <1x8b-07-s>
0

> <1x8b-08-s>
0

> <1x8b-09-s>
0

> <1x8b-10-s>
0

> <4aw5-01-s>
0

> <3v01-01-s>
0

> <3v01-02-s>
0

> <3v01-03-s>
0.657778

> <3v01-04-s>
0

> <3v01-05-s>
0

> <3v01-06-s>
0.904569

> <3v01-07-s>
0

> <3v01-08-s>
0.372603

> <3v01-09-s>
0

> <3v01-10-s>
0

> <DistanceToCenter(1)>
0

> <Cluster(1)>
7

> <DistanceToCenter(2)>
0

> <Cluster(2)>
4

> <Uncertainity_EPHB4>
2.06

> <Uncertainity_MEK1>
5.6

> <WEE1_POC>
89

> <EPHB4_POC>
85

> <MEK1_POC>
100

$$$$
78141328
  DSViewer          3D                             0

 26 30  0  0  0  0  0  0  0  0999 V2000
    3.4424   -5.6669    0.0001 N   0  0
    3.4951   -7.0001    0.0004 C   0  0
    2.2393   -4.9965   -0.0005 C   0  0
    2.3607   -7.7957    0.0003 N   0  0
    1.1258   -5.7314   -0.0006 C   0  0
    1.2205   -7.2179   -0.0002 C   0  0
    4.6705   -5.1408    0.0004 N   0  0
    4.7585   -7.3840    0.0010 C   0  0
    2.1754   -3.5959   -0.0008 N   0  0
    0.0751    0.7228    0.0004 C   0  0
    1.1052    2.6659    0.0005 N   0  0
    5.5127   -6.1109    0.0009 C   0  0
    1.2523    1.2895    0.0000 C   0  0
   -0.3055    2.9149    0.0013 C   0  0
   -0.9524    1.7392    0.0013 C   0  0
    0.0013   -8.0169   -0.0003 C   0  0
   -0.0894   -0.7116    0.0001 C   0  0
    2.4799    0.5173   -0.0009 C   0  0
    1.0171   -1.4626   -0.0007 C   0  0
    0.8864   -2.9576   -0.0010 C   0  0
    2.3694   -0.8169   -0.0012 C   0  0
   -1.3057   -7.3541   -0.0007 C   0  0
    0.0752   -9.3461   -0.0001 C   0  0
   -1.1516  -10.1469   -0.0002 C   0  0
   -2.4210   -8.0819   -0.0007 C   0  0
   -2.3402   -9.5450   -0.0005 C   0  0
  2  1  1  0  0  0
  3  1  1  0  0  0
  4  2  1  0  0  0
  5  3  2  0  0  0
  6  5  1  0  0  0
  7  1  1  0  0  0
  8  2  2  0  0  0
  9  3  1  0  0  0
 10 17  1  0  0  0
 11 13  1  0  0  0
 12  7  2  0  0  0
 13 18  1  0  0  0
 14 15  2  0  0  0
 15 10  1  0  0  0
 16  6  1  0  0  0
 17 19  2  0  0  0
 18 21  2  0  0  0
 19 20  1  0  0  0
 20  9  1  0  0  0
 21 19  1  0  0  0
 22 16  1  0  0  0
 23 16  2  0  0  0
 24 23  1  0  0  0
 25 22  2  0  0  0
 26 24  2  0  0  0
  8 12  1  0  0  0
  6  4  2  0  0  0
 13 10  2  0  0  0
 25 26  1  0  0  0
 14 11  1  0  0  0
M  END
> <ID>
78141328

> <ID>
78141328

> <Clean Energy>
34.5465

> <Supplier>
ChemBridge

> <clogP>
3.94

> <RB>
4

> <tPSA>
58.01

> <Hacc>
2

> <Hdon>
2

> <LogSw>
-6.15

> <STEREOCHEMISTRY>
N/A

> <ADMET_Solubility>
-6.157

> <ADMET_Solubility_Level>
1

> <ADMET_Unknown_AlogP98>
0

> <ADMET_BBB>
0.366

> <ADMET_BBB_Level>
1

> <ADMET_EXT_CYP2D6>
-1.42496

> <ADMET_EXT_CYP2D6#Prediction>
false

> <ADMET_EXT_CYP2D6_Applicability>
All properties and OPS components are within expected ranges.
Unknown FCFP_2 feature: -332197802: [*][c](:[*]):n1:n:[*]:[*]:[c]:1:[*]
Unknown FCFP_2 feature: -1564473960: [*]:n:[c]1:[cH]:[*]:[*]:n:1:[*]

> <ADMET_EXT_CYP2D6_Applicability#MD>
15.2426

> <ADMET_EXT_CYP2D6_Applicability#MDpvalue>
1.08379e-06

> <ADMET_EXT_Hepatotoxic>
3.55265

> <ADMET_EXT_Hepatotoxic#Prediction>
true

> <ADMET_EXT_Hepatotoxic_Applicability>
All properties and OPS components are within expected ranges.
Unknown FCFP_2 feature: -332197802: [*][c](:[*]):n1:n:[*]:[*]:[c]:1:[*]

> <ADMET_EXT_Hepatotoxic_Applicability#MD>
10.6903

> <ADMET_EXT_Hepatotoxic_Applicability#MDpvalue>
0.0158325

> <ADMET_Absorption_Level>
0

> <ADMET_EXT_PPB>
0.237517

> <ADMET_EXT_PPB#Prediction>
true

> <ADMET_EXT_PPB_Applicability>
All properties and OPS components are within expected ranges.

> <ADMET_EXT_PPB_Applicability#MD>
15.0784

> <ADMET_EXT_PPB_Applicability#MDpvalue>
4.32019e-07

> <ADMET_AlogP98>
4.536

> <ADMET_PSA_2D>
55.735

> <DistanceToCenter>
0.743902

> <Cluster>
1

> <DistanceToCenter(1)>
0.743902

> <Cluster(1)>
1

> <DistanceToCenter(2)>
0

> <Cluster(2)>
5

> <Uncertainity_EPHB4>
2.06

> <Uncertainity_MEK1>
5.6

> <WEE1_POC>
82

> <EPHB4_POC>
99

> <MEK1_POC>
100

$$$$
18864755
  DSViewer          3D                             0

 17 19  0  0  0  0  0  0  0  0999 V2000
    5.4649   -3.2845   -0.0002 C   0  0
    7.0180   -1.7186   -0.0001 N   0  0
    5.7464   -1.8874   -0.0001 C   0  0
    7.6301   -2.9643   -0.0002 N   0  0
    4.1951   -3.9689   -0.0002 C   0  0
    6.6049   -3.9092   -0.0002 C   0  0
    4.2284   -5.3064   -0.0002 C   0  0
    2.9805   -6.0644    0.0000 C   0  0
    0.6015   -6.0267   -0.0002 N   0  0
    3.0049   -7.3926    0.0007 C   0  0
    5.5435   -6.0326   -0.0002 C   0  0
    6.6952   -5.3511   -0.0003 C   0  0
    4.7926   -0.8690    0.0000 N   0  0
    1.7428   -8.1154    0.0010 C   0  0
    1.6928   -5.3680   -0.0004 C   0  0
    1.7325   -9.5110    0.0018 N   0  0
    0.5972   -7.4357    0.0006 C   0  0
  2  3  2  0  0  0
  3  1  1  0  0  0
  4  6  1  0  0  0
  5  1  1  0  0  0
  6  1  2  0  0  0
  7  5  2  0  0  0
  8  7  1  0  0  0
  9 15  2  0  0  0
 10  8  2  0  0  0
 11 12  2  0  0  0
 12  6  1  0  0  0
 13  3  1  0  0  0
 14 10  1  0  0  0
 15  8  1  0  0  0
 16 14  1  0  0  0
 17  9  1  0  0  0
  2  4  1  0  0  0
 11  7  1  0  0  0
 14 17  2  0  0  0
M  END
> <ID>
18864755

> <ID>
18864755

> <Supplier>
ChemBridge

> <clogP>
0.54

> <RB>
1

> <tPSA>
93.61

> <Hacc>
2

> <Hdon>
3

> <LogSw>
-1.305

> <stereochemistry>
achiral

> <Clean Energy>
19.8211

> <Uncertainity_EPHB4>
2.06

> <Uncertainity_MEK1>
5.6

> <MEK1_Kd>
2900

> <EPHB4_POC>
78

> <MEK1_POC>
8.1

> <WEE1_POC>
86

$$$$
MarinLit-14196
  SciTegic04032018093D

 49 51  0  0  0  0            999 V2000
   -4.2199    0.4994   -0.5101 C   0  0
   -4.1457   -0.5880    0.3533 C   0  0
   -2.9112   -0.9561    0.8594 C   0  0
   -1.7467   -0.2567    0.5454 C   0  0
   -1.8416    0.8809   -0.2788 C   0  0
   -3.0824    1.2233   -0.8323 C   0  0
   -0.4374   -0.7895    1.0875 C   0  0  2  0  0  0
    0.2734   -1.8405    0.3096 C   0  0  1  0  0  0
    0.1823    1.8099    0.3927 O   0  0
   -0.6751    1.7174   -0.6114 C   0  0
    1.7797   -2.0227    0.4973 C   0  0
    2.5749   -1.9200   -0.8257 C   0  0  1  0  0  0
    2.2913    1.4083   -0.6069 C   0  0
    1.4405    2.4325    0.1522 C   0  0  2  0  0  0
    4.0938   -1.7095   -0.6458 C   0  0  1  0  0  0
    4.4933   -0.5333    0.2732 C   0  0
    4.7541    0.8175   -0.2859 C   0  0
    3.7750    1.6531   -0.6920 C   0  0
   -3.2473    2.2897   -1.7030 O   0  0
   -5.2295   -1.3688    0.7504 O   0  0
   -6.4969   -0.9729    0.2604 C   0  0
   -0.4702   -2.1719    1.4972 O   0  0
   -0.5045    2.3131   -1.6695 O   0  0
    2.0417    2.7899    1.5138 C   0  0
    2.3867   -3.0971   -1.5843 O   0  0
    4.5333   -2.9026   -0.0369 O   0  0
    4.6512   -0.7405    1.4372 O   0  0
   -5.1536    0.8107   -0.9494 H   0  0
   -2.8816   -1.8186    1.5087 H   0  0
    0.1403   -0.1542    1.7589 H   0  0
   -0.1776   -2.2046   -0.6144 H   0  0
    2.1315   -1.2906    1.2230 H   0  0
    1.9622   -2.9882    0.9692 H   0  0
    2.1778   -1.1102   -1.4363 H   0  0
    2.1125    0.4820   -0.0792 H   0  0
    1.8951    1.2796   -1.6145 H   0  0
    1.3086    3.3434   -0.4376 H   0  0
    4.5961   -1.6040   -1.6092 H   0  0
    5.7800    1.1261   -0.3482 H   0  0
    4.0427    2.6199   -1.0769 H   0  0
   -2.3975    2.5797   -2.0302 H   0  0
   -7.2638   -1.6415    0.6525 H   0  0
   -6.5319   -1.0335   -0.8284 H   0  0
   -6.7466    0.0388    0.5848 H   0  0
    1.3746    3.4538    2.0632 H   0  0
    3.0018    3.2949    1.4088 H   0  0
    2.1925    1.8958    2.1190 H   0  0
    2.9560   -3.7726   -1.2152 H   0  0
    4.7444   -2.6552    0.8643 H   0  0
  1  2  2  0
  1  6  1  0
  1 28  1  0
  2  3  1  0
  2 20  1  0
  3  4  2  0
  3 29  1  0
  4  5  1  0
  4  7  1  0
  5  6  2  0
  5 10  1  0
  6 19  1  0
  7  8  1  0
  7 30  1  0
  8 11  1  0
  8 31  1  0
  9 10  1  0
  9 14  1  0
 10 23  2  0
 11 12  1  0
 11 32  1  0
 11 33  1  0
 12 15  1  0
 12 34  1  0
 13 14  1  0
 13 18  1  0
 13 35  1  0
 13 36  1  0
 14 24  1  0
 14 37  1  0
 15 16  1  0
 15 26  1  0
 15 38  1  0
 16 17  1  0
 16 27  2  0
 17 18  2  0
 17 39  1  0
 18 40  1  0
 19 41  1  0
 20 21  1  0
 21 42  1  0
 21 43  1  0
 21 44  1  0
 22  7  1  0
 22  8  1  0
 24 45  1  0
 24 46  1  0
 24 47  1  0
 25 12  1  0
 25 48  1  0
 26 49  1  0
M  END
> <Name>
MarinLit-14196

> <MarinLit_ID>
14196

> <INCHI_KEY>
SSNQAUBBJYCSMY-MLOJNUBSSA-N

> <SOURCE>
Ascomycota Aigialus parvus

> <COMPOUND>
hypothemycin

> <Forcefield>
CHARMm

> <PartialChargeMethod>
MomanyRone

> <UseResidueTemplateCharge>
True

> <ForcefieldBase>
CHARMm

> <ForcefieldFFML>
<?xml version="1.0" encoding="UTF-8"?>
<!DOCTYPE ffml SYSTEM "Ffml.dtd">
<ffml version="1.0">
<forcefield name="CHARMm" derivedFrom="CHARMm" base="CHARMm">
<atomTypes>
</atomTypes>
<parameters>
</parameters>
</forcefield>
</ffml>

> <Initial Potential Energy>
154.477

> <Initial RMS Gradient>
30.5144

> <Minimization Criteria>
CONJUG> Minimization exiting with gradient tolerance ( 0.0100000) satisfied.

> <CHARMm Energy>
49.9942

> <Potential Energy>
49.9942

> <RMS Gradient>
0.00909

> <Bond Energy>
1.25586

> <Angle Energy>
8.95266

> <Urey-Bradley Energy>
0

> <Dihedral Energy>
34.3316

> <Improper Energy>
0.27896

> <Van der Waals Energy>
-4.81455

> <Electrostatic Energy>
9.98965

> <Hydrogen Bond Energy>
0

> <Solvation Free Energy>
0

> <REMARK99>
REMARK  99  MacroMolecule created from Mol2 file
REMARK  99  MarinLit-14196
REMARK  99  PROTEIN
REMARK  99  USER_CHARGES
REMARK  99
REMARK  99

> <Uncertainity_EPHB4>
2.06

> <Uncertainity_MEK1>
5.6

> <WEE1_POC>
94

> <MEK1_POC>
0

> <EPHB4_POC>
68

$$$$
